STM32_shield
*SPICE Netlist generated by Advanced Sim server on 12.10.2019 13:07:10

*Schematic Netlist:

.SAVE 0


*Selected Circuit Analyses:
.TRAN 2E-8 5E-6 0 2E-8
.OP

.END
